# CIF file created by FINDSYM, version 7.1.3

data_findsym-output
_audit_creation_method FINDSYM

_cell_length_a     5.4397449046
_cell_length_b     5.4397449046
_cell_length_c     11.0714904100
_cell_angle_alpha  90.0000000000
_cell_angle_beta   90.0000000000
_cell_angle_gamma  90.0000000000
_cell_volume       327.6145310887

_symmetry_space_group_name_H-M "C 1 m 1"
_symmetry_Int_Tables_number 8
_space_group.reference_setting '008:C -2y'
_space_group.transform_Pp_abc a,b,c;0,0,0

loop_
_space_group_symop_id
_space_group_symop_operation_xyz
1 x,y,z
2 x,-y,z
3 x+1/2,y+1/2,z
4 x+1/2,-y+1/2,z

loop_
_atom_type_symbol
Nd    
Nb    
O     
N     
H     

loop_
_atom_site_label
_atom_site_type_symbol
_atom_site_symmetry_multiplicity
_atom_site_Wyckoff_symbol
_atom_site_fract_x
_atom_site_fract_y
_atom_site_fract_z
_atom_site_occupancy
_atom_site_fract_symmform
Nd1 Nd   2 a  0.5024966456  0.0000000000  0.5000000000  1.0000000000 Dx,0,Dz  
Nb1 Nb   2 a -0.0008959644  0.0000000000  0.2959570980  1.0000000000 Dx,0,Dz  
Nb2 Nb   2 a -0.0008565344  0.0000000000  0.7040429010  1.0000000000 Dx,0,Dz  
O1  O    2 a -0.0039795844  0.0000000000  0.5000000000  1.0000000000 Dx,0,Dz  
O2  O    4 b  0.2484301006  0.2500433650  0.6633552560  1.0000000000 Dx,Dy,Dz 
O3  O    4 b  0.7482770456  0.2498572700  0.3366447130  1.0000000000 Dx,Dy,Dz 
O4  O    2 a -0.0014016544  0.0000000000  0.1346078080  1.0000000000 Dx,0,Dz  
O5  O    2 a -0.0018653594  0.0000000000  0.8653921920  1.0000000000 Dx,0,Dz  
N1  N    2 a  0.4986404456  0.0000000000  0.0000000000  1.0000000000 Dx,0,Dz  
H1  H    4 b  0.4989044386  0.1603754359  0.0532405380  1.0000000000 Dx,Dy,Dz 
H2  H    2 a  0.3379852577  0.0000000000 -0.0525962320  1.0000000000 Dx,0,Dz  
H3  H    2 a  0.6587362485  0.0000000000 -0.0538853290  1.0000000000 Dx,0,Dz  

# end of cif
